# generated using pymatgen
data_Li3PS4
_symmetry_space_group_name_H-M   P2_1/m
_cell_length_a   5.80933664
_cell_length_b   7.77572678
_cell_length_c   6.45316160
_cell_angle_alpha   90.00000000
_cell_angle_beta   92.40197456
_cell_angle_gamma   90.00000000
_symmetry_Int_Tables_number   11
_chemical_formula_structural   Li3PS4
_chemical_formula_sum   'Li6 P2 S8'
_cell_volume   291.24490153
_cell_formula_units_Z   2
loop_
 _symmetry_equiv_pos_site_id
 _symmetry_equiv_pos_as_xyz
  1  'x, y, z'
  2  '-x, -y, -z'
  3  '-x, y+1/2, -z'
  4  'x, -y+1/2, z'
loop_
 _atom_site_type_symbol
 _atom_site_label
 _atom_site_symmetry_multiplicity
 _atom_site_fract_x
 _atom_site_fract_y
 _atom_site_fract_z
 _atom_site_occupancy
  Li  Li0  4  0.15341318  0.02809904  0.33126177  1
  Li  Li1  2  0.50000000  0.00000000  0.00000000  1
  P  P2  2  0.13435116  0.25000000  0.82352059  1
  S  S3  4  0.25243706  0.03133806  0.69094841  1
  S  S4  2  0.21463615  0.75000000  0.19094251  1
  S  S5  2  0.28612641  0.25000000  0.11856054  1
