# generated using pymatgen
data_Na3GeSe3
_symmetry_space_group_name_H-M   P2_1/c
_cell_length_a   8.43633132
_cell_length_b   12.07048320
_cell_length_c   8.34270957
_cell_angle_alpha   90.00000000
_cell_angle_beta   118.92343619
_cell_angle_gamma   90.00000000
_symmetry_Int_Tables_number   14
_chemical_formula_structural   Na3GeSe3
_chemical_formula_sum   'Na12 Ge4 Se12'
_cell_volume   743.57683279
_cell_formula_units_Z   4
loop_
 _symmetry_equiv_pos_site_id
 _symmetry_equiv_pos_as_xyz
  1  'x, y, z'
  2  '-x, -y, -z'
  3  '-x, y+1/2, -z+1/2'
  4  'x, -y+1/2, z+1/2'
loop_
 _atom_site_type_symbol
 _atom_site_label
 _atom_site_symmetry_multiplicity
 _atom_site_fract_x
 _atom_site_fract_y
 _atom_site_fract_z
 _atom_site_occupancy
  Na  Na0  4  0.00879743  0.66135028  0.52762442  1
  Na  Na1  4  0.23022124  0.55861846  0.01615705  1
  Na  Na2  4  0.46532096  0.23270253  0.72798164  1
  Ge  Ge3  4  0.33986471  0.51044201  0.46214880  1
  Se  Se4  4  0.16092457  0.11801479  0.72609344  1
  Se  Se5  4  0.25622959  0.69847224  0.36750052  1
  Se  Se6  4  0.32440693  0.03093232  0.23297772  1
