# generated using pymatgen
data_Na3GeSe3
_symmetry_space_group_name_H-M   P2_1/c
_cell_length_a   8.46263139
_cell_length_b   12.05699017
_cell_length_c   8.30004711
_cell_angle_alpha   90.00000000
_cell_angle_beta   119.03783584
_cell_angle_gamma   90.00000000
_symmetry_Int_Tables_number   14
_chemical_formula_structural   Na3GeSe3
_chemical_formula_sum   'Na12 Ge4 Se12'
_cell_volume   740.43178387
_cell_formula_units_Z   4
loop_
 _symmetry_equiv_pos_site_id
 _symmetry_equiv_pos_as_xyz
  1  'x, y, z'
  2  '-x, -y, -z'
  3  '-x, y+1/2, -z+1/2'
  4  'x, -y+1/2, z+1/2'
loop_
 _atom_site_type_symbol
 _atom_site_label
 _atom_site_symmetry_multiplicity
 _atom_site_fract_x
 _atom_site_fract_y
 _atom_site_fract_z
 _atom_site_occupancy
  Na  Na0  4  0.00069622  0.66305169  0.52190691  1
  Na  Na1  4  0.22868864  0.56142708  0.01659003  1
  Na  Na2  4  0.47018744  0.22587656  0.71766219  1
  Ge  Ge3  4  0.34091545  0.50932396  0.46468926  1
  Se  Se4  4  0.16265334  0.11929878  0.72664948  1
  Se  Se5  4  0.25111729  0.69697660  0.36858098  1
  Se  Se6  4  0.33296323  0.03338172  0.24026023  1
