# generated using pymatgen
data_Li3PS4
_symmetry_space_group_name_H-M   Pmn2_1
_cell_length_a   7.49272517
_cell_length_b   6.40263131
_cell_length_c   6.00651648
_cell_angle_alpha   90.00000000
_cell_angle_beta   90.00000000
_cell_angle_gamma   90.00000000
_symmetry_Int_Tables_number   31
_chemical_formula_structural   Li3PS4
_chemical_formula_sum   'Li6 P2 S8'
_cell_volume   288.15155674
_cell_formula_units_Z   2
loop_
 _symmetry_equiv_pos_site_id
 _symmetry_equiv_pos_as_xyz
  1  'x, y, z'
  2  '-x+1/2, -y, z+1/2'
  3  '-x, y, z'
  4  'x+1/2, -y, z+1/2'
loop_
 _atom_site_type_symbol
 _atom_site_label
 _atom_site_symmetry_multiplicity
 _atom_site_fract_x
 _atom_site_fract_y
 _atom_site_fract_z
 _atom_site_occupancy
  Li  Li0  4  0.24202736  0.81307306  0.70516839  1
  Li  Li1  2  0.00000000  0.65169650  0.18730046  1
  P  P2  2  0.00000000  0.31562341  0.70180307  1
  S  S3  4  0.21971744  0.16570340  0.58890884  1
  S  S4  2  0.00000000  0.30984054  0.04073352  1
  S  S5  2  0.00000000  0.61304388  0.58402020  1
